ieee4/ieee4.glm
#include "config/default.glm"
#ifexist "config/config.glm"
#include "config/config.glm"
#else 
#print Warning using default configuration
#endif //config.glm

//#print ${STARTTIME}
#print ${STOPTIME}
clock {
	timezone "${TIMEZONE}";
	starttime ${STARTTIME};
	stoptime ${STOPTIME};	
}

module powerflow {
	solver_method NR;
}
module market;
module tape;
module residential {
  implicit_enduses REFRIGERATOR|LIGHTS|PLUGS|WATERHEATER|RANGE|DRYER|CLOTHESWASHER|FREEZER|MICROWAVE|DISHWASHER;
  implicit_enduse_source EIA2015;
}
module climate;

#include "ieee4/schedules.glm"


class auction {
    double current_price_mean_24h;
    double current_price_stdev_24h;
}

object auction {
    name Market_1;
    special_mode BUYERS_ONLY;
    unit kW;
    period 300;
    init_price 0.10;
    init_stdev 0.05;
	object player {
		property fixed_price;
		file "input/tariff/${TARIFF}";
		loop 150;
	};
    warmup 1;
}

object climate {
     name weather;
     tmyfile "input/data/${WEATHER}";
     interpolate QUADRATIC;
};

object overhead_line_conductor {
	name overhead_line_conductor100;
	geometric_mean_radius 0.0244;
	resistance 0.306;
}

object overhead_line_conductor {
	name overhead_line_conductor101;
	geometric_mean_radius 0.00814;
	resistance 0.592;
}

object line_spacing {
	name line_spacing200;
	distance_AB 2.5;
	distance_BC 4.5;
	distance_AC 7.0;
	distance_AN 5.656854;
	distance_BN 4.272002;
	distance_CN 5.0;
}

object line_configuration {
	name line_configuration300;
	conductor_A overhead_line_conductor100;
	conductor_B overhead_line_conductor100;
	conductor_C overhead_line_conductor100;
	conductor_N overhead_line_conductor101;
	spacing line_spacing200;
}

object transformer_configuration {
	name transformer_configuration400;
	connect_type 1;
	power_rating 6000;
	powerA_rating 2000;
	powerB_rating 2000;
	powerC_rating 2000;
	primary_voltage 12470;
	secondary_voltage 4160;
	resistance 0.01;
	reactance 0.06;
}

object node {
	name node1;
	bustype SWING;
	phases "ABCN";
	voltage_A +7199.558+0.000j;
	voltage_B -3599.779-6235.000j;
	voltage_C -3599.779+6235.000j;
	nominal_voltage 7200;
}

object overhead_line {
	phases "ABCN";
	from node1;
	to node2;
	length 2000;
	configuration line_configuration300;
}

object node {
	name node2;
	phases "ABCN";
	voltage_A +7199.558+0.000j;
	voltage_B -3599.779-6235.000j;
	voltage_C -3599.779+6235.000j;
	nominal_voltage 7200;
}

object transformer {
	name transformer23;
	phases "ABCN";
	from node2;
	to node3;
	configuration transformer_configuration400;
}

object node {
	name node3;
	phases "ABCN";
	voltage_A +2401.777+0.000j;
	voltage_B -1200.889-2080.000j;
	voltage_C -1200.889+2080.000j;
	nominal_voltage 2400;
}

object overhead_line:34 {
	phases "ABCN";
	from node3;
	to node4;
	length 2500;
	configuration line_configuration300;
}

object node {
	name node4;
	phases ABCN;
	nominal_voltage 2400;
}

object transformer {
       name CTTF_A1;
       phases AS;
       from node4;
       to tn_A1;
       configuration object transformer_configuration {
            connect_type SINGLE_PHASE_CENTER_TAPPED;
            install_type POLETOP;
            shunt_impedance 10000+10000j;
            primary_voltage 2401.777;
            secondary_voltage 120;
            powerA_rating 25 kVA;
            impedance 0.00033+0.0022j;
       };
       groupid Distribution_Trans;
}

object triplex_meter {
       name tn_A1;
       phases AS;
       nominal_voltage 120;
}

object triplex_line_configuration {
      name trip_line_config;
      conductor_1 object triplex_line_conductor {
            resistance 0.97;
            geometric_mean_radius 0.01111;
            };
      conductor_2 object triplex_line_conductor {
            resistance 0.97;
            geometric_mean_radius 0.01111;
            };
      conductor_N object triplex_line_conductor {
            resistance 0.97;
            geometric_mean_radius 0.01111;
            };
      insulation_thickness 0.08;
      diameter 0.368;
}

object triplex_line {
       name tl_A1;
       phases AS;
       from tn_A1;
       to tm_A1;
       length 19.10;
       configuration trip_line_config;
       groupid Triplex_Line;
//	   object recorder {
	//	  file house_demand_5_1_1.csv;
		//  limit 100000;
		//  interval 60;
		//  property power_out.real;
	  // };
}

object triplex_meter {
       name tm_A1;
       phases AS;
       nominal_voltage 120;
       groupid House_Meter;
       bill_day 28;
       monthly_fee 10.000000;
       bill_mode HOURLY;
       power_market Market_1;
	    // object recorder {
	      // file billing_5_1_3.csv;
			  // property monthly_energy,monthly_bill;
			  // interval 60;
			  // limit 1000000;
		  //};
}


object house {
     parent tm_A1;
     name house_A1;
     floor_area 1936;
     schedule_skew 2754;
     heating_system_type HEAT_PUMP;
     heating_COP 2.7;
     cooling_system_type ELECTRIC;
     gas_enduses DRYER|RANGE;
     object controller {
           schedule_skew 2754;
           market Market_1;
           bid_mode ON;
           control_mode DOUBLE_RAMP;
           resolve_mode DEADBAND;
           slider_setting_heat 0.500;
           slider_setting_cool 0.500;
           heating_base_setpoint 68;
           cooling_base_setpoint 74;
           period 300;
           average_target current_price_mean_24h;
           standard_deviation_target current_price_stdev_24h;
           target air_temperature;
           heating_setpoint heating_setpoint;
           heating_demand last_heating_load;
           cooling_setpoint cooling_setpoint;
           cooling_demand last_cooling_load;
           deadband thermostat_deadband;
           total hvac_load;
           load hvac_load;
           state power_state;
       };
     thermal_integrity_level 5;
     air_temperature 70;
     mass_temperature 70;
     cooling_COP 2.7;
     object waterheater {
          schedule_skew 2754;
          tank_volume 50;
          heating_element_capacity 4.6 kW;
          tank_setpoint 140.0;
          temperature 135;
          thermostat_deadband 4.9;
          location INSIDE;
          tank_UA 3.3;
          demand waterdemand*1;
          object passive_controller {
          	  period 300;
              control_mode PROBABILITY_OFF;
          	  distribution_type NORMAL;
          	  observation_object Market_1;
          	  observation_property current_market.clearing_price;
          	  stdev_observation_property current_price_stdev_24h;
          	  expectation_object Market_1;
          	  expectation_property current_price_mean_24h;
          	  comfort_level 1.00;
          	  state_property override;
          };
//		  object recorder {
//			file waterheater_5_1_2.csv;
//			limit 100000;
//			interval 60;
//			property actual_power;
//		  };
     };
}

object billdump {
     runtime ${BILLDUMPTIME};
     filename "output/billdump/BillDump_IEEE_4_${TARIFF}.csv";
     group "House_Meter";
}


script on_term gridlabd:dump gridlabd.json;